  
       XFOIL         Version 6.99
  
 Calculated polar for: PANE                                            
  
 1 1 Reynolds number fixed          Mach number fixed         
  
 xtrf =   1.000 (top)        1.000 (bottom)  
 Mach =   0.000     Re =     0.100 e 6     Ncrit =   9.000  9.000
  
   alpha    CL        CD       CDp       CM     Top_Xtr  Bot_Xtr  Top_Itr  Bot_Itr
  ------ -------- --------- --------- -------- -------- -------- -------- --------
   0.000   0.1262   0.01625   0.00548  -0.0503   0.9851   1.0000   1.8249 199.0000
   0.150   0.1525   0.01670   0.00571  -0.0526   0.9806   1.0000   2.0723 199.0000
   0.300   0.1733   0.01685   0.00587  -0.0538   0.9745   1.0000   2.4145 199.0000
   0.450   0.1981   0.01716   0.00609  -0.0557   0.9692   1.0000   2.7093 199.0000
   0.600   0.2261   0.01756   0.00634  -0.0582   0.9650   1.0000   2.9419 199.0000
   0.750   0.2454   0.01772   0.00652  -0.0590   0.9586   1.0000   3.3010 199.0000
   0.900   0.2682   0.01793   0.00672  -0.0605   0.9527   1.0000   3.6341 199.0000
   1.050   0.2959   0.01822   0.00695  -0.0629   0.9482   1.0000   3.8854 199.0000
   1.200   0.3169   0.01842   0.00714  -0.0640   0.9422   1.0000   4.2235 199.0000
   1.350   0.3379   0.01857   0.00732  -0.0650   0.9355   1.0000   4.5995 199.0000
   1.500   0.3658   0.01877   0.00752  -0.0674   0.9309   1.0000   4.8595 199.0000
   1.650   0.3877   0.01893   0.00769  -0.0685   0.9249   1.0000   5.2004 199.0000
   1.800   0.4080   0.01905   0.00786  -0.0694   0.9178   1.0000   5.6055 199.0000
   1.950   0.4367   0.01916   0.00801  -0.0717   0.9132   1.0000   5.8655 199.0000
   2.100   0.4575   0.01928   0.00815  -0.0726   0.9065   1.0000   6.2466 199.0000
   2.250   0.4792   0.01935   0.00828  -0.0736   0.8995   1.0000   6.6509 199.0000
   2.400   0.5102   0.01933   0.00836  -0.0763   0.8952   1.0000   6.8934 199.0000
   2.550   0.5277   0.01942   0.00848  -0.0764   0.8871   1.0000   7.3652 199.0000
   2.700   0.5540   0.01937   0.00853  -0.0781   0.8809   1.0000   7.7225 199.0000
   2.850   0.5889   0.01916   0.00849  -0.0812   0.8772   1.0000   7.9354 199.0000
   3.000   0.6033   0.01923   0.00859  -0.0807   0.8672   1.0000   8.5121 199.0000
   3.150   0.6370   0.01892   0.00847  -0.0835   0.8623   1.0000   8.7983 199.0000
   3.300   0.6777   0.01842   0.00821  -0.0873   0.8591   1.0000   8.9877 199.0000
   3.450   0.6920   0.01840   0.00822  -0.0866   0.8477   1.0000   9.6554 199.0000
   3.600   0.7304   0.01773   0.00778  -0.0896   0.8428   1.0000   9.9430 199.0000
   3.750   0.7486   0.01751   0.00761  -0.0892   0.8308   1.0000  10.6474 199.0000
   3.900   0.7783   0.01685   0.00709  -0.0903   0.8207   1.0000  11.2468 199.0000
   4.050   0.8097   0.01598   0.00633  -0.0914   0.8082   1.0000  11.9919 199.0000
   4.200   0.8304   0.01544   0.00579  -0.0907   0.7908   1.0000  13.0353 199.0000
   4.350   0.8465   0.01506   0.00537  -0.0893   0.7699   1.0000  14.3000 199.0000
   4.500   0.8640   0.01467   0.00490  -0.0882   0.7463   1.0000  15.7491 199.0000
   4.650   0.8794   0.01442   0.00451  -0.0867   0.7184   1.0000  17.4777 199.0000
   4.800   0.8939   0.01425   0.00415  -0.0852   0.6847   1.0000  19.6113 199.0000
   4.950   0.9068   0.01422   0.00384  -0.0834   0.6425   1.0000  22.3387 199.0000
   5.100   0.9175   0.01435   0.00356  -0.0814   0.5842   1.0000  26.2273 199.0000
   5.250   0.9242   0.01483   0.00334  -0.0786   0.4910   1.0000  32.7970 199.0000
   5.400   0.9217   0.01616   0.00340  -0.0748   0.3275   1.0000  45.7906 199.0000
   5.550   0.9161   0.01847   0.00415  -0.0714   0.1688   1.0000  61.6507 199.0000
   5.700   0.9199   0.02000   0.00489  -0.0693   0.1263   1.0000  66.9908 199.0000
   5.850   0.9275   0.02112   0.00550  -0.0677   0.1065   1.0000  69.7607 199.0000
   6.000   0.9367   0.02216   0.00608  -0.0663   0.0942   1.0000  71.6115 199.0000
   6.150   0.9469   0.02327   0.00662  -0.0652   0.0854   1.0000  73.0051 199.0000
   6.300   0.9599   0.02437   0.00727  -0.0644   0.0782   1.0000  74.1933 199.0000
   6.450   0.9745   0.02553   0.00794  -0.0639   0.0722   1.0000  75.2386 199.0000
   6.600   0.9906   0.02682   0.00866  -0.0637   0.0672   1.0000  76.1162 199.0000
   6.750   1.0080   0.02815   0.00954  -0.0635   0.0636   1.0000  76.7927 199.0000
   6.900   1.0245   0.02954   0.01052  -0.0632   0.0600   1.0000  77.4646 199.0000
   7.050   1.0430   0.03122   0.01142  -0.0635   0.0573   1.0000  77.9879 199.0000
   7.200   1.0592   0.03295   0.01289  -0.0628   0.0562   1.0000  78.1985 199.0000
   7.350   1.0733   0.03464   0.01435  -0.0619   0.0547   1.0000  78.4964 199.0000
   7.500   1.0879   0.03628   0.01541  -0.0616   0.0526   1.0000  78.9183 199.0000
   7.650   1.1011   0.03839   0.01704  -0.0608   0.0520   1.0000  79.0474 199.0000
   7.800   1.1141   0.04071   0.01886  -0.0599   0.0522   1.0000  79.0053 199.0000
   7.950   1.1186   0.04326   0.02189  -0.0570   0.0545   1.0000  78.5375 199.0000
   8.100   1.1269   0.04593   0.02421  -0.0556   0.0559   1.0000  78.2619 199.0000
   8.250   1.1352   0.04852   0.02635  -0.0544   0.0566   1.0000  78.1150 199.0000
   8.400   1.1434   0.05115   0.02851  -0.0532   0.0574   1.0000  77.9612 199.0000
